"""
 This thermodynamic database was obtained by fitting the thermodynamic properties
 extracted from the following file: TOT2003.THERM
 The thermodynamic properties are fitted in order to preserve not only the
 continuity of each function at the intermediate temperature, but also the  continuity
 of the derivatives, from the 1st to the 3rd order
 The intermediate temperatures are chosen in order to minimize the fitting error.
 Last update: 3/24/2020

"""

units(length='cm', time='s', quantity='mol', act_energy='cal/mol')

ideal_gas(name='gas',
          elements="C H O N He Ar",
          species="""AR              N2              HE
                     H2              H               O2
                     O               H2O             OH
                     H2O2            HO2             CO
                     CO2             HOCO            CH4
                     CH3             CH2             CH2(S)
                     C               CH              CH3O2H
                     CH3O2           CH3OH           CH3O
                     CH2OH           CH2O            HCO
                     HO2CHO          HOCHO           OCHO
                     C2H6            C2H5            C2H5O2H
                     C2H5O2          C2H4            C2H3
                     C2H2            C2H             C2H5OH
                     C2H5O           PC2H4OH         SC2H4OH
                     C2H4O2H         C2H4O1-2        C2H3O1-2
                     CH3CHO          CH3CO           CH2CHO
                     CH2CO           HCCO            HCOOH
                     CH3CO3          CH3CO3H         CH2OHCHO
                     CHOCHO          O2C2H4O2H       HO2CH2CHO
                     CH3OCHO         CH3OCO          C3H8
                     IC3H7           NC3H7           C3H6
                     C3H5-A          C3H5-S          C3H5-T
                     C3H5O           C3H6O           CH3CHCHO
                     AC4H7OOH        CH3CHCO         AC3H5OOH
                     C3H6OH1-2       C3H6OH2-1       HOC3H6O2
                     SC3H5OH         C3H5OH          CH2CCH2OH
                     C3H4-P          C3H4-A          C3H3
                     C3H2            C2H5CHO         CH2CH2CHO
                     RALD3           C2H3CHO         CH3COCH3
                     CH3COCH2        NC4H10          PC4H9
                     SC4H9           IC4H10          IC4H9
                     TC4H9           IC4H8           IC4H7
                     IC4H7O          C4H8-1          C4H8-2
                     C4H71-3         C4H71-4         C4H71-O
                     C4H6            C4H5            C4H4
                     C4H3            C4H2            C6H6
                     FULVENE         C6H5            C5H6
                     C5H5            MCPTD           C10H8
                     NC3H7O2         IC3H7O2         C3H7OOH
                     C3-OQOOH        CHOCH2CHO       CH2OHCH2CHO
                     CH3CO2H         HCO3            HCO3H
                     CH2OHCOCH3      NC3-QOOH        IC3-QOOH
                     NC3-OOQOOH      IC3-OOQOOH      CH2COOH
                     IC4-OQOOH       NC4-OQOOH       C4H9OOH
                     C5EN-OQOOH-35   NC5H10-O        NC5-OQOOH
                     NC5H11OOH       NC4-QOOH        NC4H9-OO
                     IC4H9T-OO       IC4T-QOOH       IC4P-QOOH
                     IC4H9P-OO       NC4-OOQOOH      IC4T-OOQOOH
                     IC4P-OOQOOH     C5EN-QOOH       C5EN-OO
                     C5EN-OOQOOH-35  NC5H12OO        NC5-QOOH
                     NC5-OOQOOH      C4H6O2          C4H8O
                     C5H8O           RNC3OHOOX       QNC3OHOOX
                     ZNC3OHOOX       KEHYNC3OH       C3OHCYETH
                     RBU1OOX         QBU1OOX         ZBU1OOX
                     KEHYBU1         C4OHCYETH       RPENT1OOX
                     QPENT1OOX       ZPENT1OOX       KEHYP1OH
                     C5OHCYETH       RC6OHOOX        QC6OHOOX
                     ZC6OHOOX        KEHYC6OH        C6OHCYETH
                     RALD3OO         QALD3OO         ZALD3OO
                     ETC3H4O2        KEA3B3L         RALD4OOX
                     QA4X            ZA4X            KEA4X
                     ETALD4X         CH3COCHO        RALD5XOO
                     QA5X            ZA5X            KEA5X
                     RALD6XOO        QA6X            ZA6X
                     KEA6X           ETALD6X         RIBALDGOO
                     RIBALDBOO       QIBALDG2        QIBALDG3
                     QIBALDB3        ETIBALDGB       ETIBALDGG
                     ZIBALDG2        ZIBALDG3        ZIBALDB3
                     KIA4G2          NEOC5H10-O      NEOC5-OQOOH
                     NEOC5H11-OO     NEOC5-QOOH      NEOC5-OOQOOH
                     CYC6-OO         CYC6-QOOH-2     CYC6-QOOH-3
                     CYC6-QOOH-4     CYC6H10-O-12    CYC6H10-O-13
                     CYC6H10-O-14    CYC6H10-ONE     C5H9CHO
                     CYC6-OOQOOH-2   CYC6-OOQOOH-3   CYC6-OOQOOH-4
                     CYC6-OQOOH-2    CYC6-OQOOH-3    CYC6-OQOOH-4
                     C7DIONE         NC7H14O         NC7H15-OO
                     NC7-QOOH        NC7-OOQOOH      C7KETONE
                     NC7-OQOOH       NC7H15OOH       IC8H16O
                     IC8H17-OO       IC8-QOOH        IC8T-QOOH
                     IC8-OOQOOH      IC8-OQOOH       KHDECA
                     NC10-OQOOH      NC12-OQOOH      NC16-OQOOH
                     IC16-OQOOH      IC12-OQOOH      RMCYC6-OO
                     MCYC6-QOOH      MCYC6T-QOOH     MCYC6T-OOQOOH
                     MCYC6-OOQOOH    KMCYC6          QDECOOH
                     RDECOO          ZDECA           DECA_ET
                     NC10H21-OO      NC10-QOOH       NC10-OOQOOH
                     RODECOO         NC12-QOOH       NC12H25-OO
                     NC12-OOQOOH     QODECOOH        IC12-QOOH
                     IC12H25-OO      IC12-OOQOOH     NC16H33-OO
                     IC16H33-OO      IC16-QOOH       IC16T-QOOH
                     NC16-QOOH       NC16-OOQOOH     IC16-OOQOOH
                     IC16T-OOQOOH    RC6H5C4H8OO     QC6H5C4H8
                     QC6H5C4H8OO     KETBBZ          NC3H7OH
                     CH3CHCH2OH      CH3CH2CHOH      CH2CH2CH2OH
                     CH3CH2CH2O      IC3H7OH         CH2CHOHCH3
                     CH3COHCH3       C3H7CHO         RALD4X
                     C3H5CHO         IC3H5CHO        NC4H7OH
                     IC4H7OH         IC3H7CHO        RIBALDB
                     RIBALDG         N1C4H9OH        CH3CH2CHCH2OH
                     CH2CH2CH2CH2OH  CH3CH2CH2CH2O   CH3CH2CH2CHOH
                     CH3CHCH2CH2OH   N2C4H9OH        CH2CH2CHOHCH3
                     CH3CH2CHOHCH2   CH3CHCHOHCH3    CH3CH2COHCH3
                     TC4H9OH         RTC4H8OH        IC4H9OH
                     CH3CHCH3CHOH    CH3CCH2OHCH3    CH2CHCH2OHCH3
                     MEK             C5H9OH          C4H9CHO
                     IC5H9OH         IC4H9CHO        RALD5X
                     ALDC6           RALD6X          C5H11OH
                     RPENT1OHA       RPENT1OHB       IC5H11OH
                     RIPENTOHA       RIPENTOHB       ESAN1OH
                     RESAN1OHA       RESAN1OHB       NC5H12
                     NC5H11          NEOC5H12        NEOC5H11
                     NC5H10          NC5H9-3         B1M2
                     B1M3            B2M2            CYC5H8
                     C5H7            LC5H8           DIALLYL
                     RC6H9A          CYC6H8          CYC6H10
                     RCYC6H9         CYC6H12         CYC6H11
                     NC6H12          NC7H16          NC7H15
                     NC7H14          NC7H13          IC8H18
                     IC8H17          IC8H16          DIMEPTD
                     C7H8            C6H5OH          C6H5CHO
                     C6H5CO          C7H7            CH3C6H4
                     C6H5O           BENZYNE         RCATEC
                     C6H4O2          CYC5H4O         C7H7O2
                     O2C6H4CH3       OC6H4CH2        C6H5CH2O
                     BZCOOH          C6H5O2          RBBENZ
                     STILB           OOC6H4OH        C6H4OH
                     C7H6            C7H5            CYC5H4
                     C5H3            C5H2            C5H5O
                     LC6H6           C6H4C2H3        CRESOL
                     RCRESOLC        RCRESOLO        C6H5CH2OH
                     C6H5C2H         C6H4C2H         C6H5C2H3
                     C6H5C2H5        C6H5C2H2        C6H5CHCH3
                     XYLENE          RXYLENE         INDENE
                     INDENYL         C10H7           C10H7OH
                     C10H7O          C10H6CH3        C10H7CH2
                     C10H7CHO        C10H7CH3        CH3C10H6OH
                     CH3C10H6O       C12H8           C12H7
                     BIPHENYL        C12H9           FLUORENE
                     C6H5CH2C6H5     C14H10          C14H9
                     C16H10          C16H9           C6H5C2H4C6H5
                     C18H10          C18H9           LC6H5
                     C6H2            C6H3            C6H4
                     C8H2            BIN1B           BIN1A
                     C18H14          C6H5C2H4        RMCYC6
                     MCYC6           TMBENZ          NPBENZ
                     RC9H11          DIBZFUR         BZFUR
                     ODECAL          DECALIN         TETRALIN
                     DCYC5           RTETRALIN       RTETRAOO
                     RDECALIN        RODECA          NC10H22
                     NC10H21         C10H10          NC12H25
                     IC16H33         NC16H33         NC10H19
                     NC12H26         IC16H34         NC16H34
                     NC10H20         IC12H26         IC12H25
                     C10H16          C10H15          C6H5C4H9
                     RC6H5C4H8       C6H5C4H7-3      CH2OHCH2OH
                     GLYCEROL        C3H4O3          FURFURAL
                     FURAN           CH2CCHCHO       C4H3O
                     MEFU2           DMF             DMF-3YL
                     C6H10O5         C6H8O4          C6H6O3
                     C5H8O4          CATECHOL        GUAIACOL
                     SALICALD        VANILLIN        C8H6O3
                     C6H5OCH3        C7H6O3          RC7H5O3
                     C24H28O4        C6H4O           RSALICPH
                     RGUAIPH         RANISPH         RCATEPH""",
          reactions='all',
          initial_state=state(temperature=300.0, pressure=OneAtm))

#-------------------------------------------------------------------------------
# Species data
#-------------------------------------------------------------------------------

species(name='AR',
        atoms='Ar:1',
        thermo=(NASA([200.00, 820.00],
                     [ 2.49974489E+00,  1.52569132E-06, -3.17359231E-09,
                       2.74307057E-12, -8.58511922E-16, -7.45343207E+02,
                       4.38079817E+00]),
                NASA([820.00, 3500.00],
                     [ 2.50013931E+00, -3.98290200E-07,  3.45886082E-10,
                      -1.18293971E-13,  1.38553174E-17, -7.45407891E+02,
                       4.37897362E+00])))

species(name='N2',
        atoms='N:2',
        thermo=(NASA([200.00, 1050.00],
                     [ 3.73100682E+00, -1.83159730E-03,  4.32324662E-06,
                      -3.04378151E-09,  7.46071562E-13, -1.06287426E+03,
                       2.16821198E+00]),
                NASA([1050.00, 3500.00],
                     [ 2.81166073E+00,  1.67067353E-03, -6.79997428E-07,
                       1.32881379E-10, -1.02767442E-14, -8.69811579E+02,
                       6.64838050E+00])))

species(name='HE',
        atoms='He:1',
        thermo=(NASA([200.00, 850.00],
                     [ 2.49964853E+00,  2.08151569E-06, -4.16682427E-09,
                       3.47465907E-12, -1.04992675E-15, -7.45332012E+02,
                       9.30248556E-01]),
                NASA([850.00, 3500.00],
                     [ 2.50020615E+00, -5.42576298E-07,  4.63926302E-10,
                      -1.57302170E-13,  1.82971406E-17, -7.45426807E+02,
                       9.27648988E-01])))

species(name='H2',
        atoms='H:2',
        thermo=(NASA([200.00, 700.00],
                     [ 2.64204438E+00,  5.49529274E-03, -1.27163634E-05,
                       1.28749173E-08, -4.70027749E-12, -9.43236614E+02,
                      -5.12231102E-01]),
                NASA([700.00, 3500.00],
                     [ 3.78199881E+00, -1.01873259E-03,  1.24226233E-06,
                      -4.19011898E-10,  4.75543793E-14, -1.10283023E+03,
                      -5.60525910E+00])))

species(name='H',
        atoms='H:1',
        thermo=(NASA([200.00, 860.00],
                     [ 2.49950544E+00,  2.99164046E-06, -5.92759759E-09,
                       4.87810165E-12, -1.45539320E-15,  2.54737866E+04,
                      -4.44574018E-01]),
                NASA([860.00, 3500.00],
                     [ 2.50031493E+00, -7.73406828E-07,  6.39345346E-10,
                      -2.12551791E-13,  2.44479191E-17,  2.54736474E+04,
                      -4.48357228E-01])))

species(name='O2',
        atoms='O:2',
        thermo=(NASA([200.00, 700.00],
                     [ 3.74403921E+00, -2.79740147E-03,  9.80122558E-06,
                      -1.03259643E-08,  3.79931247E-12, -1.06069827E+03,
                       3.82132646E+00]),
                NASA([700.00, 3500.00],
                     [ 2.82012408E+00,  2.48211357E-03, -1.51202094E-06,
                       4.48556201E-10, -4.87305668E-14, -9.31350148E+02,
                       7.94914552E+00])))

species(name='O',
        atoms='O:1',
        thermo=(NASA([200.00, 720.00],
                     [ 3.14799201E+00, -3.11174065E-03,  6.18137897E-06,
                      -5.63808798E-09,  1.94866016E-12,  2.91309118E+04,
                       2.13446549E+00]),
                NASA([720.00, 3500.00],
                     [ 2.62549143E+00, -2.08959644E-04,  1.33918546E-07,
                      -3.85875896E-11,  4.38918689E-15,  2.92061519E+04,
                       4.48358519E+00])))

species(name='H2O',
        atoms='H:2 O:1',
        thermo=(NASA([200.00, 1420.00],
                     [ 4.06061172E+00, -8.65807189E-04,  3.24409528E-06,
                      -1.80243079E-09,  3.32483293E-13, -3.02831314E+04,
                      -2.96150481E-01]),
                NASA([1420.00, 3500.00],
                     [ 2.66777075E+00,  3.05768849E-03, -9.00442411E-07,
                       1.43361552E-10, -1.00857817E-14, -2.98875645E+04,
                       6.91191131E+00])))

species(name='OH',
        atoms='H:1 O:1',
        thermo=(NASA([200.00, 1700.00],
                     [ 3.91354631E+00, -1.66275926E-03,  2.30920029E-06,
                      -1.02359508E-09,  1.58829629E-13,  3.40005047E+03,
                       2.05474719E-01]),
                NASA([1700.00, 3500.00],
                     [ 2.49867369E+00,  1.66635279E-03, -6.28251516E-07,
                       1.28346806E-10, -1.05735894E-14,  3.88110716E+03,
                       7.78218862E+00])))

species(name='H2O2',
        atoms='H:2 O:2',
        thermo=(NASA([200.00, 1800.00],
                     [ 3.34774224E+00,  7.05005437E-03, -3.84522006E-06,
                       1.16720661E-09, -1.47618105E-13, -1.75784785E+04,
                       7.17868851E+00]),
                NASA([1800.00, 3500.00],
                     [ 4.76869639E+00,  3.89237848E-03, -1.21382349E-06,
                       1.92615285E-10, -1.22581990E-14, -1.80900220E+04,
                      -5.11811777E-01])))

species(name='HO2',
        atoms='H:1 O:2',
        thermo=(NASA([200.00, 700.00],
                     [ 3.61994299E+00,  1.05805705E-03,  5.06678941E-06,
                      -6.33800762E-09,  2.41597281E-12,  3.15898234E+02,
                       6.44411482E+00]),
                NASA([700.00, 3500.00],
                     [ 3.02391889E+00,  4.46390907E-03, -2.23146492E-06,
                       6.12710799E-10, -6.64266237E-14,  3.99341609E+02,
                       9.10699973E+00])))

species(name='CO',
        atoms='C:1 O:1',
        thermo=(NASA([200.00, 960.00],
                     [ 3.75723891E+00, -2.14465241E-03,  5.42079005E-06,
                      -4.17025963E-09,  1.11901127E-12, -1.43575530E+04,
                       2.79976799E+00]),
                NASA([960.00, 3500.00],
                     [ 2.79255381E+00,  1.87486886E-03, -8.59711926E-07,
                       1.91200070E-10, -1.67855286E-14, -1.41723335E+04,
                       7.41443560E+00])))

species(name='CO2',
        atoms='C:1 O:2',
        thermo=(NASA([200.00, 1450.00],
                     [ 2.31684347E+00,  9.22755036E-03, -7.75654093E-06,
                       3.28225360E-09, -5.48722482E-13, -4.83626067E+04,
                       1.00786234E+01]),
                NASA([1450.00, 3500.00],
                     [ 4.70876468E+00,  2.62914704E-03, -9.30606462E-07,
                       1.43892920E-10, -7.62581414E-15, -4.90562639E+04,
                      -2.34976452E+00])))

species(name='HOCO',
        atoms='C:1 H:1 O:2',
        thermo=(NASA([200.00, 1570.00],
                     [ 2.36661498E+00,  1.22618052E-02, -9.56063074E-06,
                       3.75217930E-09, -5.81927554E-13, -2.29856904E+04,
                       1.35214769E+01]),
                NASA([1570.00, 3500.00],
                     [ 5.88810541E+00,  3.28985507E-03, -9.88703861E-07,
                       1.12295277E-10, -2.32818718E-15, -2.40914384E+04,
                      -5.05613727E+00])))

species(name='CH4',
        atoms='C:1 H:4',
        thermo=(NASA([300.00, 700.00],
                     [ 5.23967335E+00, -1.46835123E-02,  5.29732711E-05,
                      -5.41668822E-08,  1.96318566E-11, -1.02526308E+04,
                      -4.97649748E+00]),
                NASA([700.00, 3500.00],
                     [ 5.05346405E-01,  1.23697845E-02, -4.99807922E-06,
                       1.04392765E-09, -8.62897416E-14, -9.58982501E+03,
                       1.61752775E+01])))

species(name='CH3',
        atoms='C:1 H:3',
        thermo=(NASA([300.00, 1060.00],
                     [ 3.47829310E+00,  3.54764773E-03,  1.47408440E-06,
                      -1.94375955E-09,  5.21921232E-13,  1.64399516E+04,
                       2.40875956E+00]),
                NASA([1060.00, 3500.00],
                     [ 2.78805104E+00,  6.15233477E-03, -2.21179349E-06,
                       3.74402648E-10, -2.48151349E-14,  1.65862829E+04,
                       5.77899818E+00])))

species(name='CH2',
        atoms='C:1 H:2',
        thermo=(NASA([300.00, 1800.00],
                     [ 3.76489460E+00,  1.43839191E-03,  4.75583077E-07,
                      -4.31788591E-10,  7.58292874E-14,  4.58645699E+04,
                       1.48953153E+00]),
                NASA([1800.00, 3500.00],
                     [ 2.81272972E+00,  3.55431388E-03, -1.28768523E-06,
                       2.21273744E-10, -1.48738147E-14,  4.62073492E+04,
                       6.64284652E+00])))

species(name='CH2(S)',
        atoms='C:1 H:2',
        thermo=(NASA([300.00, 970.00],
                     [ 4.18185434E+00, -2.21134314E-03,  7.71527541E-06,
                      -5.95950381E-09,  1.58314628E-12,  5.03669407E+04,
                      -7.03002602E-01]),
                NASA([970.00, 3500.00],
                     [ 2.75934299E+00,  3.65468307E-03, -1.35589914E-06,
                       2.74980411E-10, -2.36795472E-14,  5.06429079E+04,
                       6.11646383E+00])))

species(name='C',
        atoms='C:1',
        thermo=(NASA([200.00, 700.00],
                     [ 2.54495192E+00, -2.47725281E-04,  5.48018277E-07,
                      -5.48551250E-10,  2.04117331E-13,  8.54434105E+04,
                       4.56874273E+00]),
                NASA([700.00, 3500.00],
                     [ 2.49472531E+00,  3.92839476E-05, -6.70014980E-08,
                       3.71818694E-11, -5.07306885E-15,  8.54504422E+04,
                       4.79314254E+00])))

species(name='CH',
        atoms='C:1 H:1',
        thermo=(NASA([300.00, 1590.00],
                     [ 3.77264332E+00, -1.58547350E-03,  2.83512238E-06,
                      -1.36146058E-09,  2.23995332E-13,  7.06312492E+04,
                       8.79407904E-01]),
                NASA([1590.00, 3500.00],
                     [ 2.27990128E+00,  2.16985238E-03, -7.07637885E-07,
                       1.23973494E-10, -9.56348515E-15,  7.11059412E+04,
                       8.77326061E+00])))

species(name='CH3O2H',
        atoms='C:1 H:4 O:2',
        thermo=(NASA([300.00, 1090.00],
                     [ 7.70006797E-01,  3.34217373E-02, -3.65604414E-05,
                       2.08548532E-08, -4.68827401E-12, -1.66736094E+04,
                       2.02794895E+01]),
                NASA([1090.00, 3500.00],
                     [ 7.33435519E+00,  9.33238534E-03, -3.40995713E-06,
                       5.79327692E-10, -3.79241109E-14, -1.81046374E+04,
                      -1.19553974E+01])))

species(name='CH3O2',
        atoms='C:1 H:3 O:2',
        thermo=(NASA([300.00, 1800.00],
                     [ 1.44289632E+00,  1.80733314E-02, -1.09946545E-05,
                       3.42333984E-09, -4.34452142E-13,  3.21366390E+02,
                       1.93041293E+01]),
                NASA([1800.00, 3500.00],
                     [ 5.64141817E+00,  8.74328281E-03, -3.21961406E-06,
                       5.43695218E-10, -3.45015008E-14, -1.19010148E+03,
                      -3.41914683E+00])))

species(name='CH3OH',
        atoms='C:1 H:4 O:1',
        thermo=(NASA([300.00, 1800.00],
                     [ 8.47330479E-01,  1.63086904E-02, -8.48344961E-06,
                       2.29304341E-09, -2.59952013E-13, -2.50962544E+04,
                       1.95933297E+01]),
                NASA([1800.00, 3500.00],
                     [ 2.71701530E+00,  1.21538353E-02, -5.02107031E-06,
                       1.01068070E-09, -8.18460823E-14, -2.57693409E+04,
                       9.47420540E+00])))

species(name='CH3O',
        atoms='C:1 H:3 O:1',
        thermo=(NASA([300.00, 1740.00],
                     [ 8.89660985E-01,  1.70119767E-02, -1.13807351E-05,
                       3.88280928E-09, -5.32841479E-13,  1.60316121E+03,
                       1.85001134E+01]),
                NASA([1740.00, 3500.00],
                     [ 5.72238062E+00,  5.90227637E-03, -1.80340720E-06,
                       2.13335009E-10, -5.61816409E-15, -7.86252225E+01,
                      -7.49173677E+00])))

species(name='CH2OH',
        atoms='C:1 H:3 O:1',
        thermo=(NASA([300.00, 1360.00],
                     [ 2.34821579E+00,  1.39600168E-02, -1.08632206E-05,
                       4.62498416E-09, -8.08499162E-13, -3.30222106E+03,
                       1.22661977E+01]),
                NASA([1360.00, 3500.00],
                     [ 5.04534950E+00,  6.02727059E-03, -2.11386821E-06,
                       3.36085905E-10, -2.00987482E-14, -4.03584143E+03,
                      -1.57524073E+00])))

species(name='CH2O',
        atoms='C:1 H:2 O:1',
        thermo=(NASA([300.00, 700.00],
                     [ 4.32621296E+00, -7.01151853E-03,  3.15176961E-05,
                      -3.36478638E-08,  1.23454023E-11, -1.43270169E+04,
                       2.62028902E+00]),
                NASA([700.00, 3500.00],
                     [ 1.33335652E+00,  1.00905183E-02, -5.12952562E-06,
                       1.25425207E-09, -1.19639109E-13, -1.39080170E+04,
                       1.59916144E+01])))

species(name='HCO',
        atoms='C:1 H:1 O:1',
        thermo=(NASA([200.00, 770.00],
                     [ 4.03483979E+00, -2.15836864E-03,  1.18233875E-05,
                      -1.18459406E-08,  4.00593954E-12,  3.83636392E+03,
                       4.20008770E+00]),
                NASA([770.00, 3500.00],
                     [ 2.60049318E+00,  5.29278258E-03, -2.69184211E-06,
                       7.21357798E-10, -7.43521409E-14,  4.05725330E+03,
                       1.07450933E+01])))

species(name='HO2CHO',
        atoms='C:1 H:2 O:3',
        thermo=(NASA([300.00, 1750.00],
                     [ 2.47434345E+00,  2.16898555E-02, -1.63512196E-05,
                       5.87745825E-09, -8.18701426E-13, -3.54892793E+04,
                       1.72835404E+01]),
                NASA([1750.00, 3500.00],
                     [ 1.00230825E+01,  4.43559488E-03, -1.56185338E-06,
                       2.43413972E-10, -1.38379570E-14, -3.81313380E+04,
                      -2.33591553E+01])))

species(name='HOCHO',
        atoms='C:1 H:2 O:2',
        thermo=(NASA([200.00, 1800.00],
                     [ 1.85206266E+00,  1.27447105E-02, -7.44476686E-06,
                       2.19581368E-09, -2.62426309E-13, -4.66124595E+04,
                       1.56434956E+01]),
                NASA([1800.00, 3500.00],
                     [ 3.79473661E+00,  8.42765725E-03, -3.84722250E-06,
                       8.63389842E-10, -7.73674422E-14, -4.73118221E+04,
                       5.12933885E+00])))

species(name='OCHO',
        atoms='C:1 H:1 O:2',
        thermo=(NASA([200.00, 700.00],
                     [ 4.25809175E+00, -5.72067562E-04,  1.59428742E-05,
                      -1.84069475E-08,  6.86566202E-12, -1.69508675E+04,
                       6.00851172E+00]),
                NASA([700.00, 3500.00],
                     [ 2.58373953E+00,  8.99565940E-03, -4.55939787E-06,
                       1.11902584E-09, -1.07899898E-13, -1.67164582E+04,
                       1.34890938E+01])))

species(name='C2H6',
        atoms='C:2 H:6',
        thermo=(NASA([300.00, 1800.00],
                     [-2.41778724E-01,  2.53475709E-02, -1.39645112E-05,
                       4.03257452E-09, -4.87754387E-13, -1.10391121E+04,
                       2.19572625E+01]),
                NASA([1800.00, 3500.00],
                     [ 4.07959141E+00,  1.57445261E-02, -5.96197393E-06,
                       1.06867182E-09, -7.61012340E-14, -1.25948053E+04,
                      -1.43089412E+00])))

species(name='C2H5',
        atoms='C:2 H:5',
        thermo=(NASA([300.00, 1800.00],
                     [ 6.75421801E-01,  2.11542617E-02, -1.20878017E-05,
                       3.64951180E-09, -4.59753237E-13,  1.33457186E+04,
                       1.95628439E+01]),
                NASA([1800.00, 3500.00],
                     [ 5.19791360E+00,  1.11042800E-02, -3.71281686E-06,
                       5.47665571E-10, -2.89412604E-14,  1.17176215E+04,
                      -4.91382513E+00])))

species(name='C2H5O2H',
        atoms='C:2 H:6 O:2',
        thermo=(NASA([300.00, 1450.00],
                     [-5.77204918E-01,  4.34425389E-02, -3.52261336E-05,
                       1.47085102E-08, -2.45040879E-12, -2.09741147E+04,
                       2.97412031E+01]),
                NASA([1450.00, 3500.00],
                     [ 1.00876750E+01,  1.40221806E-02, -4.79128015E-06,
                       7.15474133E-10, -3.78163629E-14, -2.40669299E+04,
                      -2.56733582E+01])))

species(name='C2H5O2',
        atoms='C:2 H:5 O:2',
        thermo=(NASA([300.00, 1480.00],
                     [ 2.00183268E-01,  3.75253910E-02, -2.94645378E-05,
                       1.19284684E-08, -1.93568426E-12, -4.94671644E+03,
                       2.60335034E+01]),
                NASA([1480.00, 3500.00],
                     [ 9.29919683E+00,  1.29334624E-02, -4.54028592E-06,
                       7.01327861E-10, -3.92078228E-14, -7.64002445E+03,
                      -2.14311736E+01])))

species(name='C2H4',
        atoms='C:2 H:4',
        thermo=(NASA([300.00, 1650.00],
                     [-6.02932450E-02,  2.08133970E-02, -1.34307867E-05,
                       4.60638301E-09, -6.51687481E-13,  5.51151676E+03,
                       2.10642172E+01]),
                NASA([1650.00, 3500.00],
                     [ 4.60402718E+00,  9.50595350E-03, -3.15129261E-06,
                       4.53052074E-10, -2.23949159E-14,  3.97229102E+03,
                      -3.77420905E+00])))

species(name='C2H3',
        atoms='C:2 H:3',
        thermo=(NASA([300.00, 1450.00],
                     [ 1.23421214E+00,  1.56222204E-02, -1.10171572E-05,
                       4.27989337E-09, -6.91541509E-13,  3.46967692E+04,
                       1.68637048E+01]),
                NASA([1450.00, 3500.00],
                     [ 4.18728376E+00,  7.47581588E-03, -2.58984227E-06,
                       4.05265795E-10, -2.35022721E-14,  3.38403785E+04,
                       1.51958751E+00])))

species(name='C2H2',
        atoms='C:2 H:2',
        thermo=(NASA([300.00, 790.00],
                     [ 7.70536907E-01,  2.37107998E-02, -3.66622044E-05,
                       2.95989761E-08, -9.27579255E-12,  2.64317975E+04,
                       1.40907683E+01]),
                NASA([790.00, 3500.00],
                     [ 4.37267454E+00,  5.47212830E-03, -2.03181542E-06,